sol/case30Q.m
function mpc = case30Q
%CASE30Q

%% MATPOWER Case Format : Version 2
mpc.version = '2';

%%-----  Power Flow Data  -----%%
%% system MVA base
mpc.baseMVA = 100;

%% bus data
%	bus_i	type	Pd	Qd	Gs	Bs	area	Vm	Va	baseKV	zone	Vmax	Vmin	lam_P	lam_Q	mu_Vmax	mu_Vmin
mpc.bus = [
	1	3	0	0	0	0	1	1.02321921	0	135	1	1.05	0.95	3.2942	0.4495	0.0000	0.0000;
	2	2	21.7	12.7	0	0	1	1.01507463	-0.494242488	135	1	1.1	0.95	3.3113	0.4573	0.0000	0.0000;
	3	1	2.4	1.2	0	0	1	1.00559659	-1.39785601	135	1	1.05	0.95	3.4100	0.4934	0.0000	0.0000;
	4	1	7.6	1.6	0	0	1	1.00235033	-1.64633481	135	1	1.05	0.95	3.4319	0.5014	0.0000	0.0000;
	5	1	0	0	0	0.19	1	1.00136604	-1.69595168	135	1	1.05	0.95	3.3419	0.4566	0.0000	0.0000;
	6	1	0	0	0	0	1	0.996136203	-1.89831493	135	1	1.05	0.95	3.3276	0.4458	0.0000	0.0000;
	7	1	22.8	10.9	0	0	1	0.988986103	-2.3424248	135	1	1.05	0.95	3.3731	0.4686	0.0000	0.0000;
	8	1	30	30	0	0	1	0.984902522	-2.30421152	135	1	1.05	0.95	20.6631	17.1217	0.0000	0.0000;
	9	1	0	0	0	0	1	0.993410934	-2.17606686	135	1	1.05	0.95	3.9083	0.9652	0.0000	0.0000;
	10	1	5.8	2	0	0	3	0.991992768	-2.32216324	135	1	1.05	0.95	4.2158	1.2362	0.0000	0.0000;
	11	1	0	0	0	0	1	0.993410934	-2.17606686	135	1	1.05	0.95	3.9083	0.9652	0.0000	0.0000;
	12	1	11.2	7.5	0	0	2	1.01495103	-2.17488866	135	1	1.05	0.95	4.1607	1.1608	0.0000	0.0000;
	13	2	0	0	0	0	2	1.04399637	-0.516336506	135	1	1.1	0.95	4.0953	1.0988	0.0000	0.0000;
	14	1	6.2	1.6	0	0	2	1.00617001	-2.67567845	135	1	1.05	0.95	4.4383	1.2775	0.0000	0.0000;
	15	1	8.2	2.5	0	0	2	1.01096408	-2.4555798	135	1	1.05	0.95	4.6246	1.2761	0.0000	0.0000;
	16	1	3.5	1.8	0	0	2	0.998005627	-2.53575918	135	1	1.05	0.95	4.2267	1.2185	0.0000	0.0000;
	17	1	9	5.8	0	0	2	0.988480115	-2.60379363	135	1	1.05	0.95	4.2486	1.2508	0.0000	0.0000;
	18	1	3.2	0.9	0	0	2	0.991547229	-3.15185539	135	1	1.05	0.95	4.5880	1.3057	0.0000	0.0000;
	19	1	9.5	3.4	0	0	2	0.98364082	-3.37603133	135	1	1.05	0.95	4.5355	1.3110	0.0000	0.0000;
	20	1	2.2	0.7	0	0	2	0.984821097	-3.16977113	135	1	1.05	0.95	4.4624	1.2957	0.0000	0.0000;
	21	1	17.5	11.2	0	0	3	0.994951797	-1.98285066	135	1	1.05	0.95	4.4065	1.3046	0.0000	0.0000;
	22	2	0	0	0	0	3	0.999943982	-1.75006466	135	1	1.1	0.95	4.4376	1.3052	0.0000	0.0000;
	23	2	3.2	1.6	0	0	2	1.03848114	-1.29640581	135	1	1.1	0.95	4.0770	0.8291	0.0000	0.0000;
	24	1	8.7	6.7	0	0.04	3	1.013313	-1.35124715	135	1	1.05	0.95	5.4007	1.4037	0.0000	0.0000;
	25	1	0	0	0	0	3	1.04249802	0.336932667	135	1	1.05	0.95	8.4657	2.2333	0.0000	0.0000;
	26	1	3.5	2.3	0	0	3	1.02541552	-0.0677345936	135	1	1.05	0.95	8.6655	2.3667	0.0000	0.0000;
	27	2	0	0	0	0	3	1.06895166	1.62056071	135	1	1.1	0.95	3.9810	0.4492	0.0000	0.0000;
	28	1	0	0	0	0	1	1.00381674	-1.72354879	135	1	1.05	0.95	6.8634	3.8858	0.0000	0.0000;
	29	1	2.4	0.9	0	0	3	1.04999987	0.485873369	135	1	1.05	0.95	3.8886	0.0918	135.8513	0.0000;
	30	1	10.6	1.9	0	0	3	1.03911337	-0.307621299	135	1	1.05	0.95	4.0503	0.2704	0.0000	0.0000;
];

%% generator data
%	bus	Pg	Qg	Qmax	Qmin	Vg	mBase	status	Pmax	Pmin	Pc1	Pc2	Qc1min	Qc1max	Qc2min	Qc2max	ramp_agc	ramp_10	ramp_30	ramp_q	apf	mu_Pmax	mu_Pmin	mu_Qmax	mu_Qmin
mpc.gen = [
	1	32.3560139	11.236432	150	-20	1.02321921	100	1	80	0	0	0	0	0	0	0	0	0	0	0	0	0.0000	0.0000	0.0000	0.0000;
	2	44.6078707	13.0668255	60	-20	1.01507463	100	1	80	0	0	0	0	0	0	0	0	0	0	0	0	0.0000	0.0000	0.0000	0.0000;
	22	27.500583	10.4418095	62.5	-15	0.999943982	100	1	50	0	0	0	0	0	0	0	0	0	0	0	0	0.0000	0.0000	0.0000	0.0000;
	27	43.822995	26.9328031	48.7	-15	1.06895166	100	1	55	0	0	0	0	0	0	0	0	0	0	0	0	0.0000	0.0000	0.0000	0.0000;
	23	21.5403051	16.5813386	40	-10	1.03848114	100	1	30	0	0	0	0	0	0	0	0	0	0	0	0	0.0000	0.0000	0.0000	0.0000;
	13	21.9059396	21.9765265	44.7	-15	1.04399637	100	1	40	0	0	0	0	0	0	0	0	0	0	0	0	0.0000	0.0000	0.0000	0.0000;
];

%% branch data
%	fbus	tbus	r	x	b	rateA	rateB	rateC	ratio	angle	status	angmin	angmax	Pf	Qf	Pt	Qt	mu_Sf	mu_St	mu_angmin	mu_angmax
mpc.branch = [
	1	2	0.02	0.06	0.03	130	130	130	0	0	1	-360	360	17.6253	6.5083	-17.5535	-9.4089	0.0000	0.0000	0.0000	0.0000;
	1	3	0.05	0.19	0.02	130	130	130	0	0	1	-360	360	14.7308	4.7281	-14.6112	-6.3320	0.0000	0.0000	0.0000	0.0000;
	2	4	0.06	0.17	0.02	65	65	65	0	0	1	-360	360	13.1233	2.0566	-13.0175	-3.7918	0.0000	0.0000	0.0000	0.0000;
	3	4	0.01	0.04	0	130	130	130	0	0	1	-360	360	12.2112	5.1320	-12.1938	-5.0626	0.0000	0.0000	0.0000	0.0000;
	2	5	0.05	0.2	0.02	130	130	130	0	0	1	-360	360	11.6951	3.1152	-11.6204	-4.8495	0.0000	0.0000	0.0000	0.0000;
	2	6	0.06	0.18	0.02	65	65	65	0	0	1	-360	360	15.6428	4.6040	-15.4819	-6.1437	0.0000	0.0000	0.0000	0.0000;
	4	6	0.01	0.04	0	90	90	90	0	0	1	-360	360	14.0018	12.0955	-13.9677	-11.9592	0.0000	0.0000	0.0000	0.0000;
	5	7	0.05	0.12	0.01	70	70	70	0	0	1	-360	360	11.6204	5.0400	-11.5378	-5.8321	0.0000	0.0000	0.0000	0.0000;
	6	7	0.03	0.08	0.01	130	130	130	0	0	1	-360	360	11.3075	4.2036	-11.2622	-5.0679	0.0000	0.0000	0.0000	0.0000;
	6	8	0.01	0.04	0	32	32	32	0	0	1	-360	360	22.9506	22.2996	-22.8474	-21.8868	27.0799	0.0000	0.0000	0.0000;
	6	9	0	0.21	0	65	65	65	0	0	1	-360	360	2.2843	1.2983	-2.2843	-1.2837	0.0000	0.0000	0.0000	0.0000;
	6	10	0	0.56	0	32	32	32	0	0	1	-360	360	1.3053	0.7419	-1.3053	-0.7291	0.0000	0.0000	0.0000	0.0000;
	9	11	0	0.21	0	65	65	65	0	0	1	-360	360	0.0000	0.0000	0.0000	0.0000	0.0000	0.0000	0.0000	0.0000;
	9	10	0	0.11	0	65	65	65	0	0	1	-360	360	2.2843	1.2837	-2.2843	-1.2760	0.0000	0.0000	0.0000	0.0000;
	4	12	0	0.26	0	65	65	65	0	0	1	-360	360	3.6095	-4.8412	-3.6095	4.9355	0.0000	0.0000	0.0000	0.0000;
	12	13	0	0.14	0	65	65	65	0	0	1	-360	360	-21.9059	-20.7398	21.9059	21.9765	0.0000	0.0000	0.0000	0.0000;
	12	14	0.12	0.26	0	32	32	32	0	0	1	-360	360	4.1401	1.5320	-4.1174	-1.4828	0.0000	0.0000	0.0000	0.0000;
	12	15	0.07	0.13	0	32	32	32	0	0	1	-360	360	4.3009	0.8063	-4.2879	-0.7822	0.0000	0.0000	0.0000	0.0000;
	12	16	0.09	0.2	0	32	32	32	0	0	1	-360	360	5.8745	5.9659	-5.8133	-5.8298	0.0000	0.0000	0.0000	0.0000;
	14	15	0.22	0.2	0	16	16	16	0	0	1	-360	360	-2.0826	-0.1172	2.0921	0.1258	0.0000	0.0000	0.0000	0.0000;
	16	17	0.08	0.19	0	16	16	16	0	0	1	-360	360	2.3133	4.0298	-2.2959	-3.9886	0.0000	0.0000	0.0000	0.0000;
	15	18	0.11	0.22	0	16	16	16	0	0	1	-360	360	8.0121	4.9502	-7.9166	-4.7593	0.0000	0.0000	0.0000	0.0000;
	18	19	0.06	0.13	0	16	16	16	0	0	1	-360	360	4.7166	3.8593	-4.6940	-3.8102	0.0000	0.0000	0.0000	0.0000;
	19	20	0.03	0.07	0	32	32	32	0	0	1	-360	360	-4.8060	0.4102	4.8132	-0.3933	0.0000	0.0000	0.0000	0.0000;
	10	20	0.09	0.21	0	32	32	32	0	0	1	-360	360	7.0590	0.4134	-7.0132	-0.3067	0.0000	0.0000	0.0000	0.0000;
	10	17	0.03	0.08	0	32	32	32	0	0	1	-360	360	6.7189	1.8509	-6.7041	-1.8114	0.0000	0.0000	0.0000	0.0000;
	10	21	0.03	0.07	0	32	32	32	0	0	1	-360	360	-8.5636	-0.4985	8.5861	0.5508	0.0000	0.0000	0.0000	0.0000;
	10	22	0.07	0.15	0	32	32	32	0	0	1	-360	360	-7.4245	-1.7606	7.4659	1.8494	0.0000	0.0000	0.0000	0.0000;
	21	22	0.01	0.02	0	32	32	32	0	0	1	-360	360	-26.0861	-11.7508	26.1688	11.9162	0.0000	0.0000	0.0000	0.0000;
	15	23	0.1	0.2	0	16	16	16	0	0	1	-360	360	-14.0163	-6.7938	14.2537	7.2686	0.0000	1.4334	0.0000	0.0000;
	22	24	0.12	0.18	0	16	16	16	0	0	1	-360	360	-6.1341	-3.3238	6.1925	3.4114	0.0000	0.0000	0.0000	0.0000;
	23	24	0.13	0.27	0	16	16	16	0	0	1	-360	360	4.0866	7.7128	-3.9948	-7.5220	0.0000	0.0000	0.0000	0.0000;
	24	25	0.19	0.33	0	16	16	16	0	0	1	-360	360	-10.8978	-2.5483	11.1295	2.9508	0.0000	0.0000	0.0000	0.0000;
	25	26	0.25	0.38	0	16	16	16	0	0	1	-360	360	3.5417	2.3634	-3.5000	-2.3000	0.0000	0.0000	0.0000	0.0000;
	25	27	0.11	0.21	0	16	16	16	0	0	1	-360	360	-14.6712	-5.3142	14.9177	5.7847	0.0000	6.6077	0.0000	0.0000;
	28	27	0	0.4	0	65	65	65	0	0	1	-360	360	-15.6482	-15.8891	15.6482	17.8633	0.0000	0.0000	0.0000	0.0000;
	27	29	0.22	0.42	0	16	16	16	0	0	1	-360	360	6.1568	1.6509	-6.0786	-1.5015	0.0000	0.0000	0.0000	0.0000;
	27	30	0.32	0.6	0	16	16	16	0	0	1	-360	360	7.1003	1.6339	-6.9517	-1.3552	0.0000	0.0000	0.0000	0.0000;
	29	30	0.24	0.45	0	16	16	16	0	0	1	-360	360	3.6786	0.6015	-3.6483	-0.5448	0.0000	0.0000	0.0000	0.0000;
	8	28	0.06	0.2	0.02	32	32	32	0	0	1	-360	360	-7.1526	-8.1132	7.2158	6.3462	0.0000	0.0000	0.0000	0.0000;
	6	28	0.02	0.06	0.01	32	32	32	0	0	1	-360	360	-8.3982	-10.4404	8.4323	9.5429	0.0000	0.0000	0.0000	0.0000;
];

%%-----  OPF Data  -----%%
%% generator cost data
%	1	startup	shutdown	n	x1	y1	...	xn	yn
%	2	startup	shutdown	n	c(n-1)	...	c0
mpc.gencost = [
	2	0	0	3	0.02	2	0;
	2	0	0	3	0.0175	1.75	0;
	2	0	0	3	0.0625	1	0;
	2	0	0	3	0.00834	3.25	0;
	2	0	0	3	0.025	3	0;
	2	0	0	3	0.025	3	0;
	2	0	0	3	0.02	0	0;
	2	0	0	3	0.0175	0	0;
	2	0	0	3	0.0625	0	0;
	2	0	0	3	0.00834	0	0;
	2	0	0	3	0.025	0	0;
	2	0	0	3	0.025	0	0;
];
